ligand-4
     RDKit          3D

 34 36  0  0  0  0  0  0  0  0999 V2000
   15.4900   19.9400   18.3900 O   0  0  0  0  0  0  0  0  0  0  0  0
   19.1600   13.2800   16.6900 O   0  0  0  0  0  0  0  0  0  0  0  0
   19.2500   14.2400   14.6200 O   0  0  0  0  0  0  0  0  0  0  0  0
   15.7000   16.3500   18.3200 N   0  0  0  0  0  0  0  0  0  0  0  0
   15.9800   18.7500   16.5800 N   0  0  0  0  0  0  0  0  0  0  0  0
   18.3100   18.9400   17.3900 C   0  0  0  0  0  0  0  0  0  0  0  0
   19.6600   13.0800   15.3700 C   0  0  0  0  0  0  0  0  0  0  0  0
   14.2800   16.6700   18.1500 C   0  0  0  0  0  0  0  0  0  0  0  0
   17.2500   19.4900   16.4200 C   0  0  0  0  0  0  0  0  0  0  0  0
   15.7300   17.6300   15.6500 C   0  0  0  0  0  0  0  0  0  0  0  0
   14.0000   18.1800   18.0100 C   0  0  0  0  0  0  0  0  0  0  0  0
   17.3800   14.7900   17.5800 C   0  0  0  0  0  0  0  0  0  0  0  0
   17.4800   15.9500   15.0700 C   0  0  0  0  0  0  0  0  0  0  0  0
   15.2100   19.0000   17.6600 C   0  0  0  0  0  0  0  0  0  0  0  0
   18.2600   14.3000   16.6300 C   0  0  0  0  0  0  0  0  0  0  0  0
   18.3100   14.8800   15.3700 C   0  0  0  0  0  0  0  0  0  0  0  0
   16.5400   15.8600   17.2900 C   0  0  0  0  0  0  0  0  0  0  0  0
   16.5800   16.4400   16.0200 C   0  0  0  0  0  0  0  0  0  0  0  0
   16.1000   16.4800   19.2300 H   0  0  0  0  0  0  0  0  0  0  0  0
   19.1600   19.4500   17.2800 H   0  0  0  0  0  0  0  0  0  0  0  0
   17.9800   19.0500   18.3300 H   0  0  0  0  0  0  0  0  0  0  0  0
   18.4700   17.9700   17.2100 H   0  0  0  0  0  0  0  0  0  0  0  0
   19.2700   12.2500   14.9700 H   0  0  0  0  0  0  0  0  0  0  0  0
   20.6600   13.0100   15.3800 H   0  0  0  0  0  0  0  0  0  0  0  0
   13.7900   16.3400   18.9500 H   0  0  0  0  0  0  0  0  0  0  0  0
   13.9500   16.2100   17.3400 H   0  0  0  0  0  0  0  0  0  0  0  0
   17.0900   20.4500   16.6100 H   0  0  0  0  0  0  0  0  0  0  0  0
   17.5800   19.3800   15.4800 H   0  0  0  0  0  0  0  0  0  0  0  0
   15.9400   17.9200   14.7200 H   0  0  0  0  0  0  0  0  0  0  0  0
   14.7600   17.3700   15.7000 H   0  0  0  0  0  0  0  0  0  0  0  0
   13.6200   18.5100   18.8700 H   0  0  0  0  0  0  0  0  0  0  0  0
   13.3200   18.3000   17.2800 H   0  0  0  0  0  0  0  0  0  0  0  0
   17.3600   14.3800   18.4900 H   0  0  0  0  0  0  0  0  0  0  0  0
   17.5300   16.3700   14.1600 H   0  0  0  0  0  0  0  0  0  0  0  0
  7  3  1  0
  7  2  1  0
  8  4  1  0
  9  5  1  0
  9  6  1  0
 10  5  1  0
 11  8  1  0
 14 11  1  0
 14  5  1  0
 14  1  1  0
 15 12  1  0
 15  2  1  0
 16 13  1  0
 16  3  1  0
 16 15  1  0
 17  4  1  0
 17 12  1  0
 18 10  1  0
 18 13  1  0
 18 17  1  0
 19  4  1  0
 20  6  1  0
 21  6  1  0
 22  6  1  0
 23  7  1  0
 24  7  1  0
 25  8  1  0
 26  8  1  0
 27  9  1  0
 28  9  1  0
 29 10  1  0
 30 10  1  0
 31 11  1  0
 32 11  1  0
 33 12  1  0
 34 13  1  0
M  END
$$$$
