ligand-40
     RDKit          3D

 31 36  0  0  0  0  0  0  0  0999 V2000
   21.6200   19.5000   18.1700 O   0  0  0  0  0  0  0  0  0  0  0  0
   25.3400   18.7300   18.1000 O   0  0  0  0  0  0  0  0  0  0  0  0
   22.7100   18.4600   21.6300 O   0  0  0  0  0  0  0  0  0  0  0  0
   15.2200   26.6300   23.2700 O   0  0  0  0  0  0  0  0  0  0  0  0
   17.2700   26.0700   21.1700 O   0  0  0  0  0  0  0  0  0  0  0  0
   21.5200   21.4700   19.3200 N   0  0  0  0  0  0  0  0  0  0  0  0
   16.0900   23.1100   22.5400 N   0  0  0  0  0  0  0  0  0  0  0  0
   23.9400   18.8000   19.8100 N   0  0  0  0  0  0  0  0  0  0  0  0
   17.4200   25.8700   22.5900 C   0  0  0  0  0  0  0  0  0  0  0  0
   20.2200   21.8800   18.8400 C   0  0  0  0  0  0  0  0  0  0  0  0
   23.4800   20.1200   19.4800 C   0  0  0  0  0  0  0  0  0  0  0  0
   17.8600   21.6600   21.7500 C   0  0  0  0  0  0  0  0  0  0  0  0
   18.8800   21.3800   20.8700 C   0  0  0  0  0  0  0  0  0  0  0  0
   25.2600   14.4400   19.4300 C   0  0  0  0  0  0  0  0  0  0  0  0
   24.4400   14.2700   20.7900 C   0  0  0  0  0  0  0  0  0  0  0  0
   15.2100   24.8000   20.9700 C   0  0  0  0  0  0  0  0  0  0  0  0
   18.4300   23.4200   19.6700 C   0  0  0  0  0  0  0  0  0  0  0  0
   23.1700   15.6300   19.2600 C   0  0  0  0  0  0  0  0  0  0  0  0
   22.1100   20.3200   18.9500 C   0  0  0  0  0  0  0  0  0  0  0  0
   24.8800   18.2200   19.0800 C   0  0  0  0  0  0  0  0  0  0  0  0
   23.5500   18.0800   20.8600 C   0  0  0  0  0  0  0  0  0  0  0  0
   16.0700   25.4900   23.2300 C   0  0  0  0  0  0  0  0  0  0  0  0
   16.6400   25.0100   20.3900 C   0  0  0  0  0  0  0  0  0  0  0  0
   15.3500   24.3900   22.4500 C   0  0  0  0  0  0  0  0  0  0  0  0
   17.1400   22.8500   21.6300 C   0  0  0  0  0  0  0  0  0  0  0  0
   19.1500   22.2500   19.8300 C   0  0  0  0  0  0  0  0  0  0  0  0
   24.6500   15.7100   18.7600 C   0  0  0  0  0  0  0  0  0  0  0  0
   23.4500   15.4900   20.7700 C   0  0  0  0  0  0  0  0  0  0  0  0
   17.4100   23.7100   20.5500 C   0  0  0  0  0  0  0  0  0  0  0  0
   25.1700   16.8600   19.6600 C   0  0  0  0  0  0  0  0  0  0  0  0
   24.3000   16.7700   20.9700 C   0  0  0  0  0  0  0  0  0  0  0  0
  9  5  1  0
 10  6  1  0
 11  8  1  0
 13 12  1  0
 15 14  1  0
 19  6  1  0
 19  1  1  0
 19 11  1  0
 20  8  1  0
 20  2  1  0
 21  8  1  0
 21  3  1  0
 22  4  1  0
 22  9  1  0
 23 16  1  0
 23  5  1  0
 24 16  1  0
 24 22  1  0
 24  7  1  0
 25  7  1  0
 25 12  1  0
 26 13  1  0
 26 17  1  0
 26 10  1  0
 27 18  1  0
 27 14  1  0
 28 18  1  0
 28 15  1  0
 29 25  1  0
 29 23  1  0
 29 17  1  0
 30 27  1  0
 30 20  1  0
 31 28  1  0
 31 30  1  0
 31 21  1  0
M  END
$$$$
