ligand-16
     RDKit          3D

 67 71  0  0  0  0  0  0  0  0999 V2000
   26.5700   17.1800   18.1200 S   0  0  0  0  0  0  0  0  0  0  0  0
   21.6900   21.0600   19.1500 O   0  0  0  0  0  0  0  0  0  0  0  0
   22.5100   19.6300   22.4000 O   0  0  0  0  0  0  0  0  0  0  0  0
   13.4800   25.4400   23.6200 O   0  0  0  0  0  0  0  0  0  0  0  0
   16.0200   26.9800   21.5000 O   0  0  0  0  0  0  0  0  0  0  0  0
   23.0600   21.5600   20.8100 N   0  0  0  0  0  0  0  0  0  0  0  0
   21.2800   22.8700   20.3800 N   0  0  0  0  0  0  0  0  0  0  0  0
   16.2100   24.4900   23.7300 N   0  0  0  0  0  0  0  0  0  0  0  0
   23.6300   18.0700   21.3500 N   0  0  0  0  0  0  0  0  0  0  0  0
   25.7300   18.6500   17.5200 C   0  0  0  0  0  0  0  0  0  0  0  0
   14.8700   26.2000   21.8400 C   0  0  0  0  0  0  0  0  0  0  0  0
   23.9100   20.4000   20.6500 C   0  0  0  0  0  0  0  0  0  0  0  0
   20.0500   23.2900   19.7400 C   0  0  0  0  0  0  0  0  0  0  0  0
   23.0900   16.9600   22.1400 C   0  0  0  0  0  0  0  0  0  0  0  0
   23.8900   15.7200   21.6900 C   0  0  0  0  0  0  0  0  0  0  0  0
   28.6800   18.0200   21.4000 C   0  0  0  0  0  0  0  0  0  0  0  0
   27.6800   18.1700   22.3300 C   0  0  0  0  0  0  0  0  0  0  0  0
   28.3400   17.7200   20.1100 C   0  0  0  0  0  0  0  0  0  0  0  0
   24.2200   16.0700   20.2300 C   0  0  0  0  0  0  0  0  0  0  0  0
   26.3600   18.0000   21.9900 C   0  0  0  0  0  0  0  0  0  0  0  0
   17.5900   22.9300   22.5600 C   0  0  0  0  0  0  0  0  0  0  0  0
   18.5100   22.6300   21.5900 C   0  0  0  0  0  0  0  0  0  0  0  0
   16.9600   26.8100   23.7000 C   0  0  0  0  0  0  0  0  0  0  0  0
   18.6100   24.9200   21.0000 C   0  0  0  0  0  0  0  0  0  0  0  0
   21.9800   21.7900   20.0600 C   0  0  0  0  0  0  0  0  0  0  0  0
   23.2900   19.3400   21.5400 C   0  0  0  0  0  0  0  0  0  0  0  0
   27.0000   17.5600   19.7700 C   0  0  0  0  0  0  0  0  0  0  0  0
   14.5800   26.2800   23.3300 C   0  0  0  0  0  0  0  0  0  0  0  0
   17.2300   26.6600   22.2000 C   0  0  0  0  0  0  0  0  0  0  0  0
   15.8200   25.8500   24.0900 C   0  0  0  0  0  0  0  0  0  0  0  0
   17.1700   24.2200   22.7500 C   0  0  0  0  0  0  0  0  0  0  0  0
   24.5500   17.5500   20.3300 C   0  0  0  0  0  0  0  0  0  0  0  0
   19.0300   23.6300   20.8000 C   0  0  0  0  0  0  0  0  0  0  0  0
   26.0000   17.7200   20.7100 C   0  0  0  0  0  0  0  0  0  0  0  0
   17.6700   25.2300   21.9600 C   0  0  0  0  0  0  0  0  0  0  0  0
   12.9700   25.8100   24.4000 H   0  0  0  0  0  0  0  0  0  0  0  0
   23.3000   22.2300   21.5200 H   0  0  0  0  0  0  0  0  0  0  0  0
   21.6200   23.4500   21.1200 H   0  0  0  0  0  0  0  0  0  0  0  0
   15.7800   23.7300   24.2100 H   0  0  0  0  0  0  0  0  0  0  0  0
   25.4500   18.5100   16.5700 H   0  0  0  0  0  0  0  0  0  0  0  0
   24.9200   18.8300   18.0900 H   0  0  0  0  0  0  0  0  0  0  0  0
   26.3500   19.4300   17.5700 H   0  0  0  0  0  0  0  0  0  0  0  0
   15.0400   25.2500   21.5900 H   0  0  0  0  0  0  0  0  0  0  0  0
   14.0800   26.5500   21.3400 H   0  0  0  0  0  0  0  0  0  0  0  0
   24.8400   20.6000   20.9400 H   0  0  0  0  0  0  0  0  0  0  0  0
   23.9100   20.1000   19.7000 H   0  0  0  0  0  0  0  0  0  0  0  0
   19.7000   22.5400   19.1700 H   0  0  0  0  0  0  0  0  0  0  0  0
   20.2200   24.0900   19.1700 H   0  0  0  0  0  0  0  0  0  0  0  0
   22.1100   16.8400   21.9500 H   0  0  0  0  0  0  0  0  0  0  0  0
   23.2200   17.1200   23.1100 H   0  0  0  0  0  0  0  0  0  0  0  0
   23.3300   14.8900   21.7400 H   0  0  0  0  0  0  0  0  0  0  0  0
   24.7200   15.6000   22.2300 H   0  0  0  0  0  0  0  0  0  0  0  0
   29.6400   18.1300   21.6600 H   0  0  0  0  0  0  0  0  0  0  0  0
   27.9200   18.4000   23.2700 H   0  0  0  0  0  0  0  0  0  0  0  0
   29.0500   17.6100   19.4100 H   0  0  0  0  0  0  0  0  0  0  0  0
   23.4300   15.9200   19.6300 H   0  0  0  0  0  0  0  0  0  0  0  0
   25.0000   15.5500   19.9000 H   0  0  0  0  0  0  0  0  0  0  0  0
   25.6600   18.0900   22.6900 H   0  0  0  0  0  0  0  0  0  0  0  0
   17.2200   22.1900   23.1300 H   0  0  0  0  0  0  0  0  0  0  0  0
   18.8000   21.6800   21.4500 H   0  0  0  0  0  0  0  0  0  0  0  0
   16.7000   27.7500   23.9000 H   0  0  0  0  0  0  0  0  0  0  0  0
   17.7900   26.5700   24.2100 H   0  0  0  0  0  0  0  0  0  0  0  0
   18.9900   25.6500   20.4300 H   0  0  0  0  0  0  0  0  0  0  0  0
   14.3500   27.2300   23.5700 H   0  0  0  0  0  0  0  0  0  0  0  0
   17.9600   27.2900   21.9200 H   0  0  0  0  0  0  0  0  0  0  0  0
   15.6600   25.9100   25.0700 H   0  0  0  0  0  0  0  0  0  0  0  0
   24.3700   18.0000   19.4600 H   0  0  0  0  0  0  0  0  0  0  0  0
 10  1  1  0
 11  5  1  0
 12  6  1  0
 13  7  1  0
 14  9  1  0
 15 14  1  0
 17 16  1  0
 18 16  1  0
 19 15  1  0
 20 17  1  0
 22 21  1  0
 25  2  1  0
 25  7  1  0
 25  6  1  0
 26 12  1  0
 26  9  1  0
 26  3  1  0
 27  1  1  0
 27 18  1  0
 28 11  1  0
 28  4  1  0
 29  5  1  0
 29 23  1  0
 30 28  1  0
 30  8  1  0
 30 23  1  0
 31  8  1  0
 31 21  1  0
 32 19  1  0
 32  9  1  0
 33 24  1  0
 33 22  1  0
 33 13  1  0
 34 32  1  0
 34 27  1  0
 34 20  1  0
 35 24  1  0
 35 31  1  0
 35 29  1  0
 36  4  1  0
 37  6  1  0
 38  7  1  0
 39  8  1  0
 40 10  1  0
 41 10  1  0
 42 10  1  0
 43 11  1  0
 44 11  1  0
 45 12  1  0
 46 12  1  0
 47 13  1  0
 48 13  1  0
 49 14  1  0
 50 14  1  0
 51 15  1  0
 52 15  1  0
 53 16  1  0
 54 17  1  0
 55 18  1  0
 56 19  1  0
 57 19  1  0
 58 20  1  0
 59 21  1  0
 60 22  1  0
 61 23  1  0
 62 23  1  0
 63 24  1  0
 64 28  1  0
 65 29  1  0
 66 30  1  0
 67 32  1  0
M  END
$$$$
