ligand-39
     RDKit          3D

 58 63  0  0  0  0  0  0  0  0999 V2000
   20.4400   22.3200   18.8400 C   0  0  0  0  0  0  0  0  0  0  0  0
   19.2600   22.5800   19.8000 C   0  0  0  0  0  0  0  0  0  0  0  0
   21.0300   20.8200   18.9700 N   0  0  0  0  0  0  0  0  0  0  0  0
   22.9800   21.5300   18.5400 O   0  0  0  0  0  0  0  0  0  0  0  0
   18.9500   21.6400   20.7800 C   0  0  0  0  0  0  0  0  0  0  0  0
   22.6100   20.6500   18.8000 C   0  0  0  0  0  0  0  0  0  0  0  0
   17.9000   21.8700   21.6600 C   0  0  0  0  0  0  0  0  0  0  0  0
   23.5000   19.7100   19.0200 C   0  0  0  0  0  0  0  0  0  0  0  0
   17.1200   23.0200   21.5200 C   0  0  0  0  0  0  0  0  0  0  0  0
   17.4000   23.9400   20.4900 C   0  0  0  0  0  0  0  0  0  0  0  0
   23.7200   18.1600   19.2200 N   0  0  0  0  0  0  0  0  0  0  0  0
   18.4800   23.7200   19.6400 C   0  0  0  0  0  0  0  0  0  0  0  0
   24.0600   17.1700   18.3800 C   0  0  0  0  0  0  0  0  0  0  0  0
   24.5200   17.2900   17.2700 O   0  0  0  0  0  0  0  0  0  0  0  0
   16.5900   25.2400   20.3600 C   0  0  0  0  0  0  0  0  0  0  0  0
   23.7600   15.8300   19.0200 C   0  0  0  0  0  0  0  0  0  0  0  0
   25.1000   15.0600   19.3700 C   0  0  0  0  0  0  0  0  0  0  0  0
   16.0500   23.2600   22.4300 N   0  0  0  0  0  0  0  0  0  0  0  0
   26.1700   16.0300   19.9800 C   0  0  0  0  0  0  0  0  0  0  0  0
   15.1700   25.0100   20.9300 C   0  0  0  0  0  0  0  0  0  0  0  0
   25.6200   16.3500   21.4000 C   0  0  0  0  0  0  0  0  0  0  0  0
   24.2300   15.6300   21.4300 C   0  0  0  0  0  0  0  0  0  0  0  0
   17.2000   26.2800   21.1900 O   0  0  0  0  0  0  0  0  0  0  0  0
   17.3100   26.1000   22.6300 C   0  0  0  0  0  0  0  0  0  0  0  0
   24.6400   14.3100   20.6700 C   0  0  0  0  0  0  0  0  0  0  0  0
   15.9800   25.6300   23.2700 C   0  0  0  0  0  0  0  0  0  0  0  0
   23.1700   16.2000   20.4000 C   0  0  0  0  0  0  0  0  0  0  0  0
   23.1900   17.7200   20.3900 C   0  0  0  0  0  0  0  0  0  0  0  0
   15.2900   24.5400   22.4100 C   0  0  0  0  0  0  0  0  0  0  0  0
   22.7900   18.4200   21.2900 O   0  0  0  0  0  0  0  0  0  0  0  0
   15.1100   26.7500   23.4100 O   0  0  0  0  0  0  0  0  0  0  0  0
   23.3900   19.8400   20.1000 H   0  0  0  0  0  0  0  0  0  0  0  0
   24.1800   19.8900   18.1900 H   0  0  0  0  0  0  0  0  0  0  0  0
   14.2500   26.4600   23.8200 H   0  0  0  0  0  0  0  0  0  0  0  0
   20.4400   20.0100   19.1600 H   0  0  0  0  0  0  0  0  0  0  0  0
   15.8100   22.5600   23.1000 H   0  0  0  0  0  0  0  0  0  0  0  0
   17.5700   26.9700   23.0500 H   0  0  0  0  0  0  0  0  0  0  0  0
   18.0100   25.4200   22.8200 H   0  0  0  0  0  0  0  0  0  0  0  0
   20.1400   22.4800   17.9000 H   0  0  0  0  0  0  0  0  0  0  0  0
   21.1900   22.9400   19.0700 H   0  0  0  0  0  0  0  0  0  0  0  0
   17.7000   21.2200   22.3900 H   0  0  0  0  0  0  0  0  0  0  0  0
   19.4900   20.8100   20.8600 H   0  0  0  0  0  0  0  0  0  0  0  0
   27.0600   15.5900   20.0400 H   0  0  0  0  0  0  0  0  0  0  0  0
   26.2500   16.8600   19.4300 H   0  0  0  0  0  0  0  0  0  0  0  0
   25.5100   17.3400   21.5200 H   0  0  0  0  0  0  0  0  0  0  0  0
   26.2300   15.9900   22.1100 H   0  0  0  0  0  0  0  0  0  0  0  0
   14.7000   24.3200   20.3900 H   0  0  0  0  0  0  0  0  0  0  0  0
   14.6500   25.8700   20.8900 H   0  0  0  0  0  0  0  0  0  0  0  0
   18.6900   24.3700   18.9200 H   0  0  0  0  0  0  0  0  0  0  0  0
   25.3800   13.8200   21.1200 H   0  0  0  0  0  0  0  0  0  0  0  0
   23.8700   13.6900   20.5200 H   0  0  0  0  0  0  0  0  0  0  0  0
   16.1700   25.2500   24.1800 H   0  0  0  0  0  0  0  0  0  0  0  0
   16.5500   25.5300   19.4100 H   0  0  0  0  0  0  0  0  0  0  0  0
   14.3700   24.3700   22.7700 H   0  0  0  0  0  0  0  0  0  0  0  0
   25.4400   14.4600   18.6500 H   0  0  0  0  0  0  0  0  0  0  0  0
   23.8700   15.4700   22.3500 H   0  0  0  0  0  0  0  0  0  0  0  0
   23.1400   15.2700   18.4800 H   0  0  0  0  0  0  0  0  0  0  0  0
   22.2500   15.8300   20.5400 H   0  0  0  0  0  0  0  0  0  0  0  0
  2  1  1  0
  3  1  1  0
  5  2  1  0
  6  3  1  0
  6  4  1  0
  7  5  1  0
  8  6  1  0
  9  7  1  0
 10  9  1  0
 11  8  1  0
 12 10  1  0
 12  2  1  0
 13 11  1  0
 14 13  1  0
 15 10  1  0
 16 13  1  0
 17 16  1  0
 18  9  1  0
 19 17  1  0
 20 15  1  0
 21 19  1  0
 22 21  1  0
 23 15  1  0
 24 23  1  0
 25 22  1  0
 25 17  1  0
 26 24  1  0
 27 22  1  0
 27 16  1  0
 28 27  1  0
 28 11  1  0
 29 20  1  0
 29 26  1  0
 29 18  1  0
 30 28  1  0
 31 26  1  0
 32  8  1  0
 33  8  1  0
 34 31  1  0
 35  3  1  0
 36 18  1  0
 37 24  1  0
 38 24  1  0
 39  1  1  0
 40  1  1  0
 41  7  1  0
 42  5  1  0
 43 19  1  0
 44 19  1  0
 45 21  1  0
 46 21  1  0
 47 20  1  0
 48 20  1  0
 49 12  1  0
 50 25  1  0
 51 25  1  0
 52 26  1  0
 53 15  1  0
 54 29  1  0
 55 17  1  0
 56 22  1  0
 57 16  1  0
 58 27  1  0
M  END
$$$$
