ligand-7
  PyMOL2.5          3D                             0

 29 31  0  0  0  0  0  0  0  0999 V2000
   41.7697   43.4896   29.5208 H   0  0  0  0  0  0  0  0  0  0  0  0
   42.3526   43.6387   30.2688 O   0  0  0  0  0  0  0  0  0  0  0  0
   40.8269   42.6613   31.4160 O   0  0  0  0  0  0  0  0  0  0  0  0
   43.8335   40.1789   30.5994 O   0  0  0  0  0  0  0  0  0  0  0  0
   42.0345   41.2285   34.6487 O   0  0  0  0  0  0  0  0  0  0  0  0
   42.9074   40.9888   32.5331 N   0  0  0  0  0  0  0  0  0  0  0  0
   43.0428   42.4473   32.2125 C   0  0  0  0  0  0  0  0  0  0  0  0
   45.5907   38.8714   33.3008 C   0  0  0  0  0  0  0  0  0  0  0  0
   45.0309   39.2777   34.6811 C   0  0  0  0  0  0  0  0  0  0  0  0
   44.0966   37.1630   34.0398 C   0  0  0  0  0  0  0  0  0  0  0  0
   41.9923   42.9429   31.2144 C   0  0  0  0  0  0  0  0  0  0  0  0
   43.3541   39.9942   31.7021 C   0  0  0  0  0  0  0  0  0  0  0  0
   42.4744   40.5339   33.7471 C   0  0  0  0  0  0  0  0  0  0  0  0
   44.5226   37.8878   32.7552 C   0  0  0  0  0  0  0  0  0  0  0  0
   43.7036   38.4571   34.7711 C   0  0  0  0  0  0  0  0  0  0  0  0
   43.2034   38.6464   32.4023 C   0  0  0  0  0  0  0  0  0  0  0  0
   42.6230   39.0129   33.8023 C   0  0  0  0  0  0  0  0  0  0  0  0
   44.0312   42.6297   31.7782 H   0  0  0  0  0  0  0  0  0  0  0  0
   42.9421   43.0396   33.1199 H   0  0  0  0  0  0  0  0  0  0  0  0
   46.5554   38.3549   33.4175 H   0  0  0  0  0  0  0  0  0  0  0  0
   45.7474   39.7292   32.6417 H   0  0  0  0  0  0  0  0  0  0  0  0
   44.8670   40.3590   34.7665 H   0  0  0  0  0  0  0  0  0  0  0  0
   45.7159   38.9844   35.4829 H   0  0  0  0  0  0  0  0  0  0  0  0
   44.9251   36.6281   34.5243 H   0  0  0  0  0  0  0  0  0  0  0  0
   43.2542   36.4786   33.8873 H   0  0  0  0  0  0  0  0  0  0  0  0
   44.8810   37.2240   31.9622 H   0  0  0  0  0  0  0  0  0  0  0  0
   43.3557   38.3113   35.8058 H   0  0  0  0  0  0  0  0  0  0  0  0
   42.4980   38.0103   31.8419 H   0  0  0  0  0  0  0  0  0  0  0  0
   41.6470   38.5500   33.9673 H   0  0  0  0  0  0  0  0  0  0  0  0
  1  2  1  0  0  0  0
  2 11  1  0  0  0  0
  3 11  2  0  0  0  0
  4 12  2  0  0  0  0
  5 13  2  0  0  0  0
  6  7  1  0  0  0  0
  6 12  1  0  0  0  0
  6 13  1  0  0  0  0
  7 11  1  0  0  0  0
  7 18  1  0  0  0  0
  7 19  1  0  0  0  0
  8  9  1  0  0  0  0
  8 14  1  0  0  0  0
  8 20  1  0  0  0  0
  8 21  1  0  0  0  0
  9 15  1  0  0  0  0
  9 22  1  0  0  0  0
  9 23  1  0  0  0  0
 10 14  1  0  0  0  0
 10 15  1  0  0  0  0
 10 24  1  0  0  0  0
 10 25  1  0  0  0  0
 12 16  1  0  0  0  0
 13 17  1  0  0  0  0
 14 16  1  0  0  0  0
 14 26  1  0  0  0  0
 15 17  1  0  0  0  0
 15 27  1  0  0  0  0
 16 17  1  0  0  0  0
 16 28  1  0  0  0  0
 17 29  1  0  0  0  0
M  END
$$$$
