ligand-14
  PyMOL2.5          3D                             0

 67 71  0  0  0  0  0  0  0  0999 V2000
   46.4581   40.3075   28.8337 C   0  0  0  0  0  0  0  0  0  0  0  0
   45.7251   38.9865   29.8903 S   0  0  0  0  0  0  0  0  0  0  0  0
   46.4352   39.3213   31.5014 C   0  0  0  0  0  0  0  0  0  0  0  0
   47.8255   39.4782   31.6122 C   0  0  0  0  0  0  0  0  0  0  0  0
   48.4157   39.7741   32.8431 C   0  0  0  0  0  0  0  0  0  0  0  0
   47.6056   39.8831   33.9831 C   0  0  0  0  0  0  0  0  0  0  0  0
   46.2152   39.6861   33.8921 C   0  0  0  0  0  0  0  0  0  0  0  0
   45.6150   39.4002   32.6513 C   0  0  0  0  0  0  0  0  0  0  0  0
   44.1044   39.1035   32.5601 C   0  0  0  0  0  0  0  0  0  0  0  0
   43.8613   37.5839   32.5964 C   0  0  0  0  0  0  0  0  0  0  0  0
   43.5703   37.2810   34.0656 C   0  0  0  0  0  0  0  0  0  0  0  0
   42.8927   38.5612   34.5784 C   0  0  0  0  0  0  0  0  0  0  0  0
   43.3252   39.6424   33.6911 N   0  0  0  0  0  0  0  0  0  0  0  0
   42.8378   40.9431   33.8040 C   0  0  0  0  0  0  0  0  0  0  0  0
   42.0280   41.2327   34.6744 O   0  0  0  0  0  0  0  0  0  0  0  0
   43.3902   41.9844   32.8166 C   0  0  0  0  0  0  0  0  0  0  0  0
   42.5827   43.2259   32.8393 N   0  0  0  0  0  0  0  0  0  0  0  0
   41.5034   43.4400   32.0394 C   0  0  0  0  0  0  0  0  0  0  0  0
   41.2423   42.7428   31.0677 O   0  0  0  0  0  0  0  0  0  0  0  0
   39.4965   44.9246   31.8123 C   0  0  0  0  0  0  0  0  0  0  0  0
   38.4470   45.3443   32.8329 C   0  0  0  0  0  0  0  0  0  0  0  0
   37.7595   46.5660   32.7055 C   0  0  0  0  0  0  0  0  0  0  0  0
   36.7599   46.9259   33.6361 C   0  0  0  0  0  0  0  0  0  0  0  0
   35.9626   48.2179   33.4588 C   0  0  0  0  0  0  0  0  0  0  0  0
   34.5720   48.0492   34.0880 C   0  0  0  0  0  0  0  0  0  0  0  0
   34.7608   47.6754   35.5772 C   0  0  0  0  0  0  0  0  0  0  0  0
   35.5282   46.4136   35.6745 N   0  0  0  0  0  0  0  0  0  0  0  0
   36.4778   46.0639   34.7139 C   0  0  0  0  0  0  0  0  0  0  0  0
   37.1553   44.8522   34.8413 C   0  0  0  0  0  0  0  0  0  0  0  0
   38.1349   44.4925   33.9008 C   0  0  0  0  0  0  0  0  0  0  0  0
   35.5129   48.8321   36.3101 C   0  0  0  0  0  0  0  0  0  0  0  0
   34.6752   49.9936   36.3926 O   0  0  0  0  0  0  0  0  0  0  0  0
   36.8538   49.1511   35.5713 C   0  0  0  0  0  0  0  0  0  0  0  0
   36.6046   49.3250   34.1517 O   0  0  0  0  0  0  0  0  0  0  0  0
   41.0260   44.9280   33.3128 H   0  0  0  0  0  0  0  0  0  0  0  0
   40.7454   44.4906   32.4516 N   0  0  0  0  0  0  0  0  0  0  0  0
   33.8245   49.7044   36.8016 H   0  0  0  0  0  0  0  0  0  0  0  0
   42.6436   43.8139   33.6607 H   0  0  0  0  0  0  0  0  0  0  0  0
   35.7773   46.1308   36.6239 H   0  0  0  0  0  0  0  0  0  0  0  0
   46.1182   40.1807   27.7933 H   0  0  0  0  0  0  0  0  0  0  0  0
   46.1400   41.2873   29.2059 H   0  0  0  0  0  0  0  0  0  0  0  0
   47.5580   40.2452   28.8639 H   0  0  0  0  0  0  0  0  0  0  0  0
   37.2855   50.0693   35.9936 H   0  0  0  0  0  0  0  0  0  0  0  0
   37.5721   48.3393   35.7397 H   0  0  0  0  0  0  0  0  0  0  0  0
   44.4305   42.2016   33.1075 H   0  0  0  0  0  0  0  0  0  0  0  0
   43.3997   41.5667   31.8056 H   0  0  0  0  0  0  0  0  0  0  0  0
   39.0950   44.1169   31.1902 H   0  0  0  0  0  0  0  0  0  0  0  0
   39.7284   45.7658   31.1343 H   0  0  0  0  0  0  0  0  0  0  0  0
   41.8025   38.4636   34.5178 H   0  0  0  0  0  0  0  0  0  0  0  0
   43.1828   38.7682   35.6190 H   0  0  0  0  0  0  0  0  0  0  0  0
   42.9384   36.3921   34.1733 H   0  0  0  0  0  0  0  0  0  0  0  0
   44.5097   37.1179   34.6055 H   0  0  0  0  0  0  0  0  0  0  0  0
   49.4859   39.9018   32.9237 H   0  0  0  0  0  0  0  0  0  0  0  0
   48.0558   40.1399   34.9438 H   0  0  0  0  0  0  0  0  0  0  0  0
   48.4556   39.3590   30.7321 H   0  0  0  0  0  0  0  0  0  0  0  0
   42.9811   37.3571   31.9956 H   0  0  0  0  0  0  0  0  0  0  0  0
   44.7103   37.0131   32.2053 H   0  0  0  0  0  0  0  0  0  0  0  0
   45.6250   39.7452   34.8021 H   0  0  0  0  0  0  0  0  0  0  0  0
   36.9137   44.1908   35.6597 H   0  0  0  0  0  0  0  0  0  0  0  0
   38.6429   43.5312   33.9987 H   0  0  0  0  0  0  0  0  0  0  0  0
   34.0106   47.2716   33.5660 H   0  0  0  0  0  0  0  0  0  0  0  0
   34.0039   48.9807   33.9800 H   0  0  0  0  0  0  0  0  0  0  0  0
   37.9811   47.2375   31.8772 H   0  0  0  0  0  0  0  0  0  0  0  0
   35.7519   48.4993   37.3194 H   0  0  0  0  0  0  0  0  0  0  0  0
   35.8634   48.4606   32.3994 H   0  0  0  0  0  0  0  0  0  0  0  0
   33.7704   47.5363   36.0365 H   0  0  0  0  0  0  0  0  0  0  0  0
   43.7055   39.4965   31.6209 H   0  0  0  0  0  0  0  0  0  0  0  0
  1  2  1  0  0  0  0
  1 40  1  0  0  0  0
  1 41  1  0  0  0  0
  1 42  1  0  0  0  0
  2  3  1  0  0  0  0
  3  4  1  0  0  0  0
  3  8  2  0  0  0  0
  4  5  2  0  0  0  0
  4 55  1  0  0  0  0
  5  6  1  0  0  0  0
  5 53  1  0  0  0  0
  6  7  2  0  0  0  0
  6 54  1  0  0  0  0
  7  8  1  0  0  0  0
  7 58  1  0  0  0  0
  8  9  1  0  0  0  0
  9 10  1  0  0  0  0
  9 13  1  0  0  0  0
  9 67  1  0  0  0  0
 10 11  1  0  0  0  0
 10 56  1  0  0  0  0
 10 57  1  0  0  0  0
 11 12  1  0  0  0  0
 11 51  1  0  0  0  0
 11 52  1  0  0  0  0
 12 13  1  0  0  0  0
 12 49  1  0  0  0  0
 12 50  1  0  0  0  0
 13 14  1  0  0  0  0
 14 15  2  0  0  0  0
 14 16  1  0  0  0  0
 16 17  1  0  0  0  0
 16 45  1  0  0  0  0
 16 46  1  0  0  0  0
 17 18  1  0  0  0  0
 17 38  1  0  0  0  0
 18 19  2  0  0  0  0
 18 36  1  0  0  0  0
 20 21  1  0  0  0  0
 20 36  1  0  0  0  0
 20 47  1  0  0  0  0
 20 48  1  0  0  0  0
 21 22  2  0  0  0  0
 21 30  1  0  0  0  0
 22 23  1  0  0  0  0
 22 63  1  0  0  0  0
 23 24  1  0  0  0  0
 23 28  2  0  0  0  0
 24 25  1  0  0  0  0
 24 34  1  0  0  0  0
 24 65  1  0  0  0  0
 25 26  1  0  0  0  0
 25 61  1  0  0  0  0
 25 62  1  0  0  0  0
 26 27  1  0  0  0  0
 26 31  1  0  0  0  0
 26 66  1  0  0  0  0
 27 28  1  0  0  0  0
 27 39  1  0  0  0  0
 28 29  1  0  0  0  0
 29 30  2  0  0  0  0
 29 59  1  0  0  0  0
 30 60  1  0  0  0  0
 31 32  1  0  0  0  0
 31 33  1  0  0  0  0
 31 64  1  0  0  0  0
 32 37  1  0  0  0  0
 33 34  1  0  0  0  0
 33 43  1  0  0  0  0
 33 44  1  0  0  0  0
 35 36  1  0  0  0  0
M  END
$$$$
