ligand-16
  PyMOL2.5          3D                             0

 67 71  0  0  0  0  0  0  0  0999 V2000
   45.7895   38.8509   30.0292 S   0  0  0  0  0  0  0  0  0  0  0  0
   40.9969   42.6660   31.3711 O   0  0  0  0  0  0  0  0  0  0  0  0
   41.9857   41.4817   34.5920 O   0  0  0  0  0  0  0  0  0  0  0  0
   33.2501   47.2460   35.7215 O   0  0  0  0  0  0  0  0  0  0  0  0
   35.4914   48.8807   33.2513 O   0  0  0  0  0  0  0  0  0  0  0  0
   42.6989   43.4174   32.6799 N   0  0  0  0  0  0  0  0  0  0  0  0
   40.9590   44.7930   32.1986 N   0  0  0  0  0  0  0  0  0  0  0  0
   36.1561   46.7890   35.9438 N   0  0  0  0  0  0  0  0  0  0  0  0
   43.1865   39.8027   33.6438 N   0  0  0  0  0  0  0  0  0  0  0  0
   45.6647   40.5041   29.2634 C   0  0  0  0  0  0  0  0  0  0  0  0
   34.4425   47.9812   33.7021 C   0  0  0  0  0  0  0  0  0  0  0  0
   43.4451   42.1356   32.7564 C   0  0  0  0  0  0  0  0  0  0  0  0
   39.6475   45.2077   31.6903 C   0  0  0  0  0  0  0  0  0  0  0  0
   42.6510   38.7506   34.5118 C   0  0  0  0  0  0  0  0  0  0  0  0
   43.2752   37.4310   34.0463 C   0  0  0  0  0  0  0  0  0  0  0  0
   48.2958   39.8140   33.0712 C   0  0  0  0  0  0  0  0  0  0  0  0
   47.4394   39.9417   34.1688 C   0  0  0  0  0  0  0  0  0  0  0  0
   47.7741   39.4699   31.8118 C   0  0  0  0  0  0  0  0  0  0  0  0
   43.6779   37.7056   32.5932 C   0  0  0  0  0  0  0  0  0  0  0  0
   46.0611   39.7452   34.0172 C   0  0  0  0  0  0  0  0  0  0  0  0
   37.4794   45.1104   34.8374 C   0  0  0  0  0  0  0  0  0  0  0  0
   38.3442   44.7224   33.8089 C   0  0  0  0  0  0  0  0  0  0  0  0
   36.5093   49.1503   35.4180 C   0  0  0  0  0  0  0  0  0  0  0  0
   38.1440   46.9267   32.8141 C   0  0  0  0  0  0  0  0  0  0  0  0
   41.5089   43.5524   32.0323 C   0  0  0  0  0  0  0  0  0  0  0  0
   42.7979   41.1332   33.7429 C   0  0  0  0  0  0  0  0  0  0  0  0
   46.3959   39.2735   31.6502 C   0  0  0  0  0  0  0  0  0  0  0  0
   34.1998   48.1959   35.2294 C   0  0  0  0  0  0  0  0  0  0  0  0
   36.7607   48.7653   33.9502 C   0  0  0  0  0  0  0  0  0  0  0  0
   35.5378   48.1301   36.0195 C   0  0  0  0  0  0  0  0  0  0  0  0
   36.9714   46.4113   34.8846 C   0  0  0  0  0  0  0  0  0  0  0  0
   44.0117   39.2051   32.5639 C   0  0  0  0  0  0  0  0  0  0  0  0
   38.6915   45.6355   32.7975 C   0  0  0  0  0  0  0  0  0  0  0  0
   45.5195   39.4212   32.7476 C   0  0  0  0  0  0  0  0  0  0  0  0
   37.2889   47.3245   33.8627 C   0  0  0  0  0  0  0  0  0  0  0  0
   32.6716   47.7549   36.3547 H   0  0  0  0  0  0  0  0  0  0  0  0
   43.0331   44.2248   33.1880 H   0  0  0  0  0  0  0  0  0  0  0  0
   41.5230   45.4699   32.6998 H   0  0  0  0  0  0  0  0  0  0  0  0
   36.2519   46.2556   36.8034 H   0  0  0  0  0  0  0  0  0  0  0  0
   45.4105   40.4086   28.1991 H   0  0  0  0  0  0  0  0  0  0  0  0
   44.8981   41.0938   29.7741 H   0  0  0  0  0  0  0  0  0  0  0  0
   46.6346   41.0117   29.3501 H   0  0  0  0  0  0  0  0  0  0  0  0
   34.7229   46.9412   33.5224 H   0  0  0  0  0  0  0  0  0  0  0  0
   33.5110   48.1852   33.1587 H   0  0  0  0  0  0  0  0  0  0  0  0
   44.4703   42.3121   33.1026 H   0  0  0  0  0  0  0  0  0  0  0  0
   43.4891   41.6792   31.7652 H   0  0  0  0  0  0  0  0  0  0  0  0
   39.1740   44.3908   31.1399 H   0  0  0  0  0  0  0  0  0  0  0  0
   39.7900   46.0401   30.9855 H   0  0  0  0  0  0  0  0  0  0  0  0
   41.5626   38.7133   34.3952 H   0  0  0  0  0  0  0  0  0  0  0  0
   42.9055   38.9560   35.5666 H   0  0  0  0  0  0  0  0  0  0  0  0
   42.5922   36.5821   34.1227 H   0  0  0  0  0  0  0  0  0  0  0  0
   44.1657   37.2068   34.6490 H   0  0  0  0  0  0  0  0  0  0  0  0
   49.3645   39.9913   33.1881 H   0  0  0  0  0  0  0  0  0  0  0  0
   47.8352   40.2271   35.1460 H   0  0  0  0  0  0  0  0  0  0  0  0
   48.4368   39.3717   30.9614 H   0  0  0  0  0  0  0  0  0  0  0  0
   42.8273   37.5199   31.9396 H   0  0  0  0  0  0  0  0  0  0  0  0
   44.5215   37.0751   32.2736 H   0  0  0  0  0  0  0  0  0  0  0  0
   45.4082   39.8433   34.8778 H   0  0  0  0  0  0  0  0  0  0  0  0
   37.1961   44.3980   35.6105 H   0  0  0  0  0  0  0  0  0  0  0  0
   38.7523   43.7116   33.7913 H   0  0  0  0  0  0  0  0  0  0  0  0
   36.0806   50.1610   35.4753 H   0  0  0  0  0  0  0  0  0  0  0  0
   37.4510   49.1562   35.9723 H   0  0  0  0  0  0  0  0  0  0  0  0
   38.3975   47.6391   32.0305 H   0  0  0  0  0  0  0  0  0  0  0  0
   33.7901   49.2063   35.3470 H   0  0  0  0  0  0  0  0  0  0  0  0
   37.4889   49.4554   33.5137 H   0  0  0  0  0  0  0  0  0  0  0  0
   35.3425   48.3865   37.0676 H   0  0  0  0  0  0  0  0  0  0  0  0
   43.6871   39.5994   31.6004 H   0  0  0  0  0  0  0  0  0  0  0  0
  1 10  1  0  0  0  0
  1 27  1  0  0  0  0
  2 25  2  0  0  0  0
  3 26  2  0  0  0  0
  4 28  1  0  0  0  0
  4 36  1  0  0  0  0
  5 11  1  0  0  0  0
  5 29  1  0  0  0  0
  6 12  1  0  0  0  0
  6 25  1  0  0  0  0
  6 37  1  0  0  0  0
  7 13  1  0  0  0  0
  7 25  1  0  0  0  0
  7 38  1  0  0  0  0
  8 30  1  0  0  0  0
  8 31  1  0  0  0  0
  8 39  1  0  0  0  0
  9 14  1  0  0  0  0
  9 26  1  0  0  0  0
  9 32  1  0  0  0  0
 10 40  1  0  0  0  0
 10 41  1  0  0  0  0
 10 42  1  0  0  0  0
 11 28  1  0  0  0  0
 11 43  1  0  0  0  0
 11 44  1  0  0  0  0
 12 26  1  0  0  0  0
 12 45  1  0  0  0  0
 12 46  1  0  0  0  0
 13 33  1  0  0  0  0
 13 47  1  0  0  0  0
 13 48  1  0  0  0  0
 14 15  1  0  0  0  0
 14 49  1  0  0  0  0
 14 50  1  0  0  0  0
 15 19  1  0  0  0  0
 15 51  1  0  0  0  0
 15 52  1  0  0  0  0
 16 17  2  0  0  0  0
 16 18  1  0  0  0  0
 16 53  1  0  0  0  0
 17 20  1  0  0  0  0
 17 54  1  0  0  0  0
 18 27  2  0  0  0  0
 18 55  1  0  0  0  0
 19 32  1  0  0  0  0
 19 56  1  0  0  0  0
 19 57  1  0  0  0  0
 20 34  2  0  0  0  0
 20 58  1  0  0  0  0
 21 22  2  0  0  0  0
 21 31  1  0  0  0  0
 21 59  1  0  0  0  0
 22 33  1  0  0  0  0
 22 60  1  0  0  0  0
 23 29  1  0  0  0  0
 23 30  1  0  0  0  0
 23 61  1  0  0  0  0
 23 62  1  0  0  0  0
 24 33  2  0  0  0  0
 24 35  1  0  0  0  0
 24 63  1  0  0  0  0
 27 34  1  0  0  0  0
 28 30  1  0  0  0  0
 28 64  1  0  0  0  0
 29 35  1  0  0  0  0
 29 65  1  0  0  0  0
 30 66  1  0  0  0  0
 31 35  2  0  0  0  0
 32 34  1  0  0  0  0
 32 67  1  0  0  0  0
M  END
$$$$
