ligand-27
  PyMOL2.5          3D                             0

 54 57  0  0  0  0  0  0  0  0999 V2000
   39.6655   45.3893   32.4734 C   0  0  0  0  0  0  0  0  0  0  0  0
   42.3250   41.2986   34.4671 O   0  0  0  0  0  0  0  0  0  0  0  0
   42.3974   40.8702   33.3264 C   0  0  0  0  0  0  0  0  0  0  0  0
   39.2164   44.3996   33.3692 C   0  0  0  0  0  0  0  0  0  0  0  0
   37.9687   44.5263   34.0012 C   0  0  0  0  0  0  0  0  0  0  0  0
   42.6206   39.5339   33.0392 N   0  0  0  0  0  0  0  0  0  0  0  0
   42.9430   38.4944   34.0254 C   0  0  0  0  0  0  0  0  0  0  0  0
   37.1606   45.6329   33.7551 C   0  0  0  0  0  0  0  0  0  0  0  0
   43.1733   37.1475   33.3040 C   0  0  0  0  0  0  0  0  0  0  0  0
   37.5636   46.5864   32.7910 C   0  0  0  0  0  0  0  0  0  0  0  0
   44.6797   36.8319   33.3767 C   0  0  0  0  0  0  0  0  0  0  0  0
   38.8112   46.4596   32.1589 C   0  0  0  0  0  0  0  0  0  0  0  0
   45.3615   38.0461   34.0133 C   0  0  0  0  0  0  0  0  0  0  0  0
   36.7629   47.8518   32.5932 C   0  0  0  0  0  0  0  0  0  0  0  0
   44.2587   38.7735   34.7851 C   0  0  0  0  0  0  0  0  0  0  0  0
   42.1748   41.8014   32.0435 C   0  0  0  0  0  0  0  0  0  0  0  0
   36.0327   45.8506   34.5378 N   0  0  0  0  0  0  0  0  0  0  0  0
   35.3037   47.6528   33.0284 C   0  0  0  0  0  0  0  0  0  0  0  0
   42.1535   41.3779   30.8887 O   0  0  0  0  0  0  0  0  0  0  0  0
   41.9646   43.1272   32.3261 N   0  0  0  0  0  0  0  0  0  0  0  0
   41.5810   44.1005   31.2977 C   0  0  0  0  0  0  0  0  0  0  0  0
   37.3364   48.8966   33.4219 O   0  0  0  0  0  0  0  0  0  0  0  0
   37.4220   48.5698   34.8469 C   0  0  0  0  0  0  0  0  0  0  0  0
   41.0950   45.4220   31.9224 C   0  0  0  0  0  0  0  0  0  0  0  0
   36.0042   48.2264   35.3821 C   0  0  0  0  0  0  0  0  0  0  0  0
   35.3092   47.1591   34.4803 C   0  0  0  0  0  0  0  0  0  0  0  0
   34.2660   49.1397   35.5041 H   0  0  0  0  0  0  0  0  0  0  0  0
   35.2254   49.4252   35.4200 O   0  0  0  0  0  0  0  0  0  0  0  0
   42.4661   39.2528   32.0744 H   0  0  0  0  0  0  0  0  0  0  0  0
   42.1053   38.4092   34.7322 H   0  0  0  0  0  0  0  0  0  0  0  0
   42.6197   36.3419   33.8094 H   0  0  0  0  0  0  0  0  0  0  0  0
   42.8152   37.1784   32.2684 H   0  0  0  0  0  0  0  0  0  0  0  0
   44.8508   35.9384   33.9936 H   0  0  0  0  0  0  0  0  0  0  0  0
   45.0977   36.6238   32.3780 H   0  0  0  0  0  0  0  0  0  0  0  0
   45.7577   38.7054   33.2260 H   0  0  0  0  0  0  0  0  0  0  0  0
   46.1884   37.7504   34.6712 H   0  0  0  0  0  0  0  0  0  0  0  0
   44.4760   39.8422   34.8822 H   0  0  0  0  0  0  0  0  0  0  0  0
   44.1815   38.3540   35.7906 H   0  0  0  0  0  0  0  0  0  0  0  0
   42.0704   43.4205   33.2998 H   0  0  0  0  0  0  0  0  0  0  0  0
   40.7905   43.6829   30.6601 H   0  0  0  0  0  0  0  0  0  0  0  0
   42.4596   44.3019   30.6788 H   0  0  0  0  0  0  0  0  0  0  0  0
   41.1695   46.1872   31.1393 H   0  0  0  0  0  0  0  0  0  0  0  0
   41.7935   45.7207   32.7043 H   0  0  0  0  0  0  0  0  0  0  0  0
   39.1411   47.2401   31.4722 H   0  0  0  0  0  0  0  0  0  0  0  0
   36.0482   45.3887   35.4447 H   0  0  0  0  0  0  0  0  0  0  0  0
   34.2653   47.0123   34.8127 H   0  0  0  0  0  0  0  0  0  0  0  0
   36.0978   47.8186   36.3848 H   0  0  0  0  0  0  0  0  0  0  0  0
   37.8362   49.4285   35.3928 H   0  0  0  0  0  0  0  0  0  0  0  0
   38.0961   47.7319   35.0128 H   0  0  0  0  0  0  0  0  0  0  0  0
   36.7904   48.1646   31.5402 H   0  0  0  0  0  0  0  0  0  0  0  0
   34.8199   46.9103   32.3681 H   0  0  0  0  0  0  0  0  0  0  0  0
   34.7366   48.5841   32.9280 H   0  0  0  0  0  0  0  0  0  0  0  0
   37.6628   43.7837   34.7337 H   0  0  0  0  0  0  0  0  0  0  0  0
   39.8540   43.5614   33.6288 H   0  0  0  0  0  0  0  0  0  0  0  0
  1  4  2  0  0  0  0
  1 12  1  0  0  0  0
  1 24  1  0  0  0  0
  2  3  2  0  0  0  0
  3  6  1  0  0  0  0
  3 16  1  0  0  0  0
  4  5  1  0  0  0  0
  4 54  1  0  0  0  0
  5  8  2  0  0  0  0
  5 53  1  0  0  0  0
  6  7  1  0  0  0  0
  6 29  1  0  0  0  0
  7  9  1  0  0  0  0
  7 15  1  0  0  0  0
  7 30  1  0  0  0  0
  8 10  1  0  0  0  0
  8 17  1  0  0  0  0
  9 11  1  0  0  0  0
  9 31  1  0  0  0  0
  9 32  1  0  0  0  0
 10 12  2  0  0  0  0
 10 14  1  0  0  0  0
 11 13  1  0  0  0  0
 11 33  1  0  0  0  0
 11 34  1  0  0  0  0
 12 44  1  0  0  0  0
 13 15  1  0  0  0  0
 13 35  1  0  0  0  0
 13 36  1  0  0  0  0
 14 18  1  0  0  0  0
 14 22  1  0  0  0  0
 14 50  1  0  0  0  0
 15 37  1  0  0  0  0
 15 38  1  0  0  0  0
 16 19  2  0  0  0  0
 16 20  1  0  0  0  0
 17 26  1  0  0  0  0
 17 45  1  0  0  0  0
 18 26  1  0  0  0  0
 18 51  1  0  0  0  0
 18 52  1  0  0  0  0
 20 21  1  0  0  0  0
 20 39  1  0  0  0  0
 21 24  1  0  0  0  0
 21 40  1  0  0  0  0
 21 41  1  0  0  0  0
 22 23  1  0  0  0  0
 23 25  1  0  0  0  0
 23 48  1  0  0  0  0
 23 49  1  0  0  0  0
 24 42  1  0  0  0  0
 24 43  1  0  0  0  0
 25 26  1  0  0  0  0
 25 28  1  0  0  0  0
 25 47  1  0  0  0  0
 26 46  1  0  0  0  0
 27 28  1  0  0  0  0
M  END
$$$$
