ligand-2
  PyMOL2.5          3D                             0

 54 56  0  0  0  0  0  0  0  0999 V2000
   45.8400   40.9700   29.6100 C   0  0  0  0  0  0  0  0  0  0  0  0
   46.1200   39.2500   30.2000 S   0  0  0  0  0  0  0  0  0  0  0  0
   46.5400   39.5500   31.9200 C   0  0  0  0  0  0  0  0  0  0  0  0
   47.8800   39.7800   32.2500 C   0  0  0  0  0  0  0  0  0  0  0  0
   48.2500   40.0800   33.5700 C   0  0  0  0  0  0  0  0  0  0  0  0
   47.2600   40.1400   34.5700 C   0  0  0  0  0  0  0  0  0  0  0  0
   45.9200   39.8900   34.2500 C   0  0  0  0  0  0  0  0  0  0  0  0
   45.5400   39.5900   32.9200 C   0  0  0  0  0  0  0  0  0  0  0  0
   44.0800   39.2800   32.5700 C   0  0  0  0  0  0  0  0  0  0  0  0
   43.8400   37.7700   32.5000 C   0  0  0  0  0  0  0  0  0  0  0  0
   43.2200   37.4100   33.8600 C   0  0  0  0  0  0  0  0  0  0  0  0
   42.4700   38.6800   34.2700 C   0  0  0  0  0  0  0  0  0  0  0  0
   43.1100   39.7900   33.5600 N   0  0  0  0  0  0  0  0  0  0  0  0
   42.7500   41.1100   33.7600 C   0  0  0  0  0  0  0  0  0  0  0  0
   41.9400   41.4100   34.6300 O   0  0  0  0  0  0  0  0  0  0  0  0
   43.3900   42.1600   32.8300 C   0  0  0  0  0  0  0  0  0  0  0  0
   42.6200   43.4300   32.8300 N   0  0  0  0  0  0  0  0  0  0  0  0
   41.4700   43.5500   32.1200 C   0  0  0  0  0  0  0  0  0  0  0  0
   41.0800   42.6900   31.3500 O   0  0  0  0  0  0  0  0  0  0  0  0
   39.5200   45.0600   31.7300 C   0  0  0  0  0  0  0  0  0  0  0  0
   38.4200   45.2600   32.7700 C   0  0  0  0  0  0  0  0  0  0  0  0
   37.4400   46.2500   32.5700 C   0  0  0  0  0  0  0  0  0  0  0  0
   36.4100   46.4100   33.5100 C   0  0  0  0  0  0  0  0  0  0  0  0
   35.4600   45.8500   35.6500 N   0  0  0  0  0  0  0  0  0  0  0  0
   36.3800   45.6200   34.6600 C   0  0  0  0  0  0  0  0  0  0  0  0
   37.3500   44.6300   34.8500 C   0  0  0  0  0  0  0  0  0  0  0  0
   38.3600   44.4400   33.9000 C   0  0  0  0  0  0  0  0  0  0  0  0
   41.2500   45.3900   32.9500 H   0  0  0  0  0  0  0  0  0  0  0  0
   40.8100   44.7200   32.3400 N   0  0  0  0  0  0  0  0  0  0  0  0
   35.7900   45.7100   36.6100 H   0  0  0  0  0  0  0  0  0  0  0  0
   34.8100   46.6300   35.5500 H   0  0  0  0  0  0  0  0  0  0  0  0
   42.7800   44.1000   33.5800 H   0  0  0  0  0  0  0  0  0  0  0  0
   45.5100   40.9500   28.5700 H   0  0  0  0  0  0  0  0  0  0  0  0
   45.0600   41.4500   30.2300 H   0  0  0  0  0  0  0  0  0  0  0  0
   46.7600   41.5500   29.7000 H   0  0  0  0  0  0  0  0  0  0  0  0
   44.4200   42.3300   33.1700 H   0  0  0  0  0  0  0  0  0  0  0  0
   43.4300   41.7600   31.8200 H   0  0  0  0  0  0  0  0  0  0  0  0
   39.2100   44.2500   31.0500 H   0  0  0  0  0  0  0  0  0  0  0  0
   39.6400   45.9700   31.1300 H   0  0  0  0  0  0  0  0  0  0  0  0
   41.4200   38.6200   33.9500 H   0  0  0  0  0  0  0  0  0  0  0  0
   42.5200   38.8400   35.3500 H   0  0  0  0  0  0  0  0  0  0  0  0
   42.5600   36.5400   33.7900 H   0  0  0  0  0  0  0  0  0  0  0  0
   44.0100   37.2200   34.5900 H   0  0  0  0  0  0  0  0  0  0  0  0
   49.2900   40.2800   33.8200 H   0  0  0  0  0  0  0  0  0  0  0  0
   47.5400   40.3900   35.5900 H   0  0  0  0  0  0  0  0  0  0  0  0
   48.6400   39.7300   31.4700 H   0  0  0  0  0  0  0  0  0  0  0  0
   43.1200   37.5500   31.7100 H   0  0  0  0  0  0  0  0  0  0  0  0
   44.7600   37.2000   32.3000 H   0  0  0  0  0  0  0  0  0  0  0  0
   35.6500   47.1800   33.3600 H   0  0  0  0  0  0  0  0  0  0  0  0
   37.3100   44.0200   35.7400 H   0  0  0  0  0  0  0  0  0  0  0  0
   45.1800   39.9300   35.0500 H   0  0  0  0  0  0  0  0  0  0  0  0
   37.4600   46.8800   31.6900 H   0  0  0  0  0  0  0  0  0  0  0  0
   39.0900   43.6500   34.0500 H   0  0  0  0  0  0  0  0  0  0  0  0
   43.8400   39.7100   31.5900 H   0  0  0  0  0  0  0  0  0  0  0  0
  1  2  1  0  0  0  0
  1 33  1  0  0  0  0
  1 34  1  0  0  0  0
  1 35  1  0  0  0  0
  2  3  1  0  0  0  0
  3  4  1  0  0  0  0
  3  8  2  0  0  0  0
  4  5  2  0  0  0  0
  4 46  1  0  0  0  0
  5  6  1  0  0  0  0
  5 44  1  0  0  0  0
  6  7  2  0  0  0  0
  6 45  1  0  0  0  0
  7  8  1  0  0  0  0
  7 51  1  0  0  0  0
  8  9  1  0  0  0  0
  9 10  1  0  0  0  0
  9 13  1  0  0  0  0
  9 54  1  0  0  0  0
 10 11  1  0  0  0  0
 10 47  1  0  0  0  0
 10 48  1  0  0  0  0
 11 12  1  0  0  0  0
 11 42  1  0  0  0  0
 11 43  1  0  0  0  0
 12 13  1  0  0  0  0
 12 40  1  0  0  0  0
 12 41  1  0  0  0  0
 13 14  1  0  0  0  0
 14 15  2  0  0  0  0
 14 16  1  0  0  0  0
 16 17  1  0  0  0  0
 16 36  1  0  0  0  0
 16 37  1  0  0  0  0
 17 18  1  0  0  0  0
 17 32  1  0  0  0  0
 18 19  2  0  0  0  0
 18 29  1  0  0  0  0
 20 21  1  0  0  0  0
 20 29  1  0  0  0  0
 20 38  1  0  0  0  0
 20 39  1  0  0  0  0
 21 22  1  0  0  0  0
 21 27  2  0  0  0  0
 22 23  2  0  0  0  0
 22 52  1  0  0  0  0
 23 25  1  0  0  0  0
 23 49  1  0  0  0  0
 24 25  1  0  0  0  0
 24 30  1  0  0  0  0
 24 31  1  0  0  0  0
 25 26  2  0  0  0  0
 26 27  1  0  0  0  0
 26 50  1  0  0  0  0
 27 53  1  0  0  0  0
 28 29  1  0  0  0  0
M  END
$$$$
