ligand-40
  PyMOL2.5          3D                             0

 58 63  0  0  0  0  0  0  0  0999 V2000
   40.9007   42.5948   31.7569 O   0  0  0  0  0  0  0  0  0  0  0  0
   44.8874   41.8142   31.3554 O   0  0  0  0  0  0  0  0  0  0  0  0
   42.0443   41.6403   34.8876 O   0  0  0  0  0  0  0  0  0  0  0  0
   34.5390   50.0679   36.3442 O   0  0  0  0  0  0  0  0  0  0  0  0
   36.4919   49.3597   34.1510 O   0  0  0  0  0  0  0  0  0  0  0  0
   40.8808   44.7220   32.5641 N   0  0  0  0  0  0  0  0  0  0  0  0
   35.5096   46.4769   35.7814 N   0  0  0  0  0  0  0  0  0  0  0  0
   43.3728   42.0027   33.0656 N   0  0  0  0  0  0  0  0  0  0  0  0
   36.7323   49.2439   35.5858 C   0  0  0  0  0  0  0  0  0  0  0  0
   39.5937   45.1280   31.9791 C   0  0  0  0  0  0  0  0  0  0  0  0
   42.9424   43.4050   32.8016 C   0  0  0  0  0  0  0  0  0  0  0  0
   37.2707   45.0042   35.0320 C   0  0  0  0  0  0  0  0  0  0  0  0
   38.2884   44.6744   34.1214 C   0  0  0  0  0  0  0  0  0  0  0  0
   44.8013   37.5387   32.9692 C   0  0  0  0  0  0  0  0  0  0  0  0
   43.7378   37.4480   34.0974 C   0  0  0  0  0  0  0  0  0  0  0  0
   34.4771   48.0257   34.1654 C   0  0  0  0  0  0  0  0  0  0  0  0
   37.7508   46.6506   32.8270 C   0  0  0  0  0  0  0  0  0  0  0  0
   42.8179   38.7270   32.3127 C   0  0  0  0  0  0  0  0  0  0  0  0
   41.4717   43.5010   32.3418 C   0  0  0  0  0  0  0  0  0  0  0  0
   44.3456   41.3723   32.3530 C   0  0  0  0  0  0  0  0  0  0  0  0
   42.9191   41.2804   34.1140 C   0  0  0  0  0  0  0  0  0  0  0  0
   35.4057   48.9153   36.3378 C   0  0  0  0  0  0  0  0  0  0  0  0
   35.8612   48.2138   33.5141 C   0  0  0  0  0  0  0  0  0  0  0  0
   34.6857   47.7098   35.6588 C   0  0  0  0  0  0  0  0  0  0  0  0
   36.4879   46.1473   34.8400 C   0  0  0  0  0  0  0  0  0  0  0  0
   38.5335   45.5075   33.0191 C   0  0  0  0  0  0  0  0  0  0  0  0
   44.3513   38.7929   32.1742 C   0  0  0  0  0  0  0  0  0  0  0  0
   42.8466   38.6916   33.8435 C   0  0  0  0  0  0  0  0  0  0  0  0
   36.7232   46.9705   33.7274 C   0  0  0  0  0  0  0  0  0  0  0  0
   44.6879   40.0489   33.0256 C   0  0  0  0  0  0  0  0  0  0  0  0
   43.6833   39.9578   34.2050 C   0  0  0  0  0  0  0  0  0  0  0  0
   33.6990   49.7988   36.7862 H   0  0  0  0  0  0  0  0  0  0  0  0
   41.4335   45.4287   33.0379 H   0  0  0  0  0  0  0  0  0  0  0  0
   35.7694   46.2127   36.7360 H   0  0  0  0  0  0  0  0  0  0  0  0
   37.1473   50.1813   35.9776 H   0  0  0  0  0  0  0  0  0  0  0  0
   37.4760   48.4610   35.7883 H   0  0  0  0  0  0  0  0  0  0  0  0
   39.1836   44.3214   31.3678 H   0  0  0  0  0  0  0  0  0  0  0  0
   39.7697   45.9898   31.3256 H   0  0  0  0  0  0  0  0  0  0  0  0
   43.5600   43.8659   32.0156 H   0  0  0  0  0  0  0  0  0  0  0  0
   43.0559   44.0115   33.7062 H   0  0  0  0  0  0  0  0  0  0  0  0
   37.0811   44.3617   35.8961 H   0  0  0  0  0  0  0  0  0  0  0  0
   38.8727   43.7721   34.2702 H   0  0  0  0  0  0  0  0  0  0  0  0
   44.7814   36.6410   32.3355 H   0  0  0  0  0  0  0  0  0  0  0  0
   45.8137   37.6543   33.3703 H   0  0  0  0  0  0  0  0  0  0  0  0
   44.1876   37.4531   35.0968 H   0  0  0  0  0  0  0  0  0  0  0  0
   43.1472   36.5201   33.9822 H   0  0  0  0  0  0  0  0  0  0  0  0
   33.9445   47.1990   33.6715 H   0  0  0  0  0  0  0  0  0  0  0  0
   33.8625   48.9181   34.0259 H   0  0  0  0  0  0  0  0  0  0  0  0
   37.9204   47.2931   31.9625 H   0  0  0  0  0  0  0  0  0  0  0  0
   42.3940   37.8099   31.8708 H   0  0  0  0  0  0  0  0  0  0  0  0
   42.3088   39.6000   31.9053 H   0  0  0  0  0  0  0  0  0  0  0  0
   35.6541   48.6309   37.3621 H   0  0  0  0  0  0  0  0  0  0  0  0
   35.7336   48.4080   32.4419 H   0  0  0  0  0  0  0  0  0  0  0  0
   33.7154   47.5511   36.1286 H   0  0  0  0  0  0  0  0  0  0  0  0
   44.7227   38.8355   31.1317 H   0  0  0  0  0  0  0  0  0  0  0  0
   41.8567   38.6529   34.3133 H   0  0  0  0  0  0  0  0  0  0  0  0
   45.7312   40.0646   33.3670 H   0  0  0  0  0  0  0  0  0  0  0  0
   44.1735   39.8829   35.1750 H   0  0  0  0  0  0  0  0  0  0  0  0
  1 19  2  0  0  0  0
  2 20  2  0  0  0  0
  3 21  2  0  0  0  0
  4 22  1  0  0  0  0
  4 32  1  0  0  0  0
  5  9  1  0  0  0  0
  5 23  1  0  0  0  0
  6 10  1  0  0  0  0
  6 19  1  0  0  0  0
  6 33  1  0  0  0  0
  7 24  1  0  0  0  0
  7 25  1  0  0  0  0
  7 34  1  0  0  0  0
  8 11  1  0  0  0  0
  8 20  1  0  0  0  0
  8 21  1  0  0  0  0
  9 22  1  0  0  0  0
  9 35  1  0  0  0  0
  9 36  1  0  0  0  0
 10 26  1  0  0  0  0
 10 37  1  0  0  0  0
 10 38  1  0  0  0  0
 11 19  1  0  0  0  0
 11 39  1  0  0  0  0
 11 40  1  0  0  0  0
 12 13  2  0  0  0  0
 12 25  1  0  0  0  0
 12 41  1  0  0  0  0
 13 26  1  0  0  0  0
 13 42  1  0  0  0  0
 14 15  1  0  0  0  0
 14 27  1  0  0  0  0
 14 43  1  0  0  0  0
 14 44  1  0  0  0  0
 15 28  1  0  0  0  0
 15 45  1  0  0  0  0
 15 46  1  0  0  0  0
 16 23  1  0  0  0  0
 16 24  1  0  0  0  0
 16 47  1  0  0  0  0
 16 48  1  0  0  0  0
 17 26  2  0  0  0  0
 17 29  1  0  0  0  0
 17 49  1  0  0  0  0
 18 27  1  0  0  0  0
 18 28  1  0  0  0  0
 18 50  1  0  0  0  0
 18 51  1  0  0  0  0
 20 30  1  0  0  0  0
 21 31  1  0  0  0  0
 22 24  1  0  0  0  0
 22 52  1  0  0  0  0
 23 29  1  0  0  0  0
 23 53  1  0  0  0  0
 24 54  1  0  0  0  0
 25 29  2  0  0  0  0
 27 30  1  0  0  0  0
 27 55  1  0  0  0  0
 28 31  1  0  0  0  0
 28 56  1  0  0  0  0
 30 31  1  0  0  0  0
 30 57  1  0  0  0  0
 31 58  1  0  0  0  0
M  END
$$$$
